!-Generator IDFEditor 1.51
!-Option SortedOrder

!-NOTE: All comments with '!-' are ignored by the IDFEditor and are generated automatically.
!-      Use '!' comments if they need to be retained when using the IDFEditor.


!-   ===========  ALL OBJECTS IN CLASS: VERSION ===========

Version,
    9.4;                     !- Version Identifier


!-   ===========  ALL OBJECTS IN CLASS: SIMULATIONCONTROL ===========

SimulationControl,
    Yes,                     !- Do Zone Sizing Calculation
    Yes,                     !- Do System Sizing Calculation
    Yes,                     !- Do Plant Sizing Calculation
    No,                      !- Run Simulation for Sizing Periods
    Yes,                     !- Run Simulation for Weather File Run Periods
    No,                      !- Do HVAC Sizing Simulation for Sizing Periods
    1;                       !- Maximum Number of HVAC Sizing Simulation Passes


!-   ===========  ALL OBJECTS IN CLASS: BUILDING ===========

Building,
    SinBerBEST_Testbed,      !- Name
    0,                       !- North Axis {deg}
    City,                    !- Terrain
    ,                        !- Loads Convergence Tolerance Value {W}
    ,                        !- Temperature Convergence Tolerance Value {deltaC}
    FullExterior,            !- Solar Distribution
    ,                        !- Maximum Number of Warmup Days
    ;                        !- Minimum Number of Warmup Days


!-   ===========  ALL OBJECTS IN CLASS: SHADOWCALCULATION ===========

ShadowCalculation,
    PolygonClipping,         !- Shading Calculation Method
    Periodic,                !- Shading Calculation Update Frequency Method
    20,                      !- Shading Calculation Update Frequency
    15000;                   !- Maximum Figures in Shadow Overlap Calculations


!-   ===========  ALL OBJECTS IN CLASS: SURFACECONVECTIONALGORITHM:INSIDE ===========

SurfaceConvectionAlgorithm:Inside,
    TARP;                    !- Algorithm


!-   ===========  ALL OBJECTS IN CLASS: SURFACECONVECTIONALGORITHM:OUTSIDE ===========

SurfaceConvectionAlgorithm:Outside,
    SimpleCombined;          !- Algorithm


!-   ===========  ALL OBJECTS IN CLASS: HEATBALANCEALGORITHM ===========

HeatBalanceAlgorithm,
    ConductionTransferFunction,  !- Algorithm
    200;                     !- Surface Temperature Upper Limit {C}


!-   ===========  ALL OBJECTS IN CLASS: ZONEAIRHEATBALANCEALGORITHM ===========

ZoneAirHeatBalanceAlgorithm,
    ThirdOrderBackwardDifference;  !- Algorithm


!-   ===========  ALL OBJECTS IN CLASS: TIMESTEP ===========

Timestep,
    4;                       !- Number of Timesteps per Hour


!-   ===========  ALL OBJECTS IN CLASS: CONVERGENCELIMITS ===========

ConvergenceLimits,
    1;                       !- Minimum System Timestep {minutes}


!-   ===========  ALL OBJECTS IN CLASS: SITE:LOCATION ===========

Site:Location,
    SINGAPORE,               !- Name
    1.37,                    !- Latitude {deg}
    103.98,                  !- Longitude {deg}
    8,                       !- Time Zone {hr}
    16;                      !- Elevation {m}


!-   ===========  ALL OBJECTS IN CLASS: SIZINGPERIOD:DESIGNDAY ===========

SizingPeriod:DesignDay,
    SINGAPORE_Ann_Clg_4_Condns_DB_MWB,  !- Name
    6,                       !- Month
    21,                      !- Day of Month
    SummerDesignDay,         !- Day Type
    33.2,                    !- Maximum Dry-Bulb Temperature {C}
    5.5,                     !- Daily Dry-Bulb Temperature Range {deltaC}
    DefaultMultipliers,      !- Dry-Bulb Temperature Range Modifier Type
    ,                        !- Dry-Bulb Temperature Range Modifier Day Schedule Name
    Wetbulb,                 !- Humidity Condition Type
    26.4,                    !- Wetbulb or DewPoint at Maximum Dry-Bulb {C}
    ,                        !- Humidity Condition Day Schedule Name
    ,                        !- Humidity Ratio at Maximum Dry-Bulb {kgWater/kgDryAir}
    ,                        !- Enthalpy at Maximum Dry-Bulb {J/kg}
    ,                        !- Daily Wet-Bulb Temperature Range {deltaC}
    101133,                  !- Barometric Pressure {Pa}
    4.1,                     !- Wind Speed {m/s}
    30,                      !- Wind Direction {deg}
    No,                      !- Rain Indicator
    No,                      !- Snow Indicator
    No,                      !- Daylight Saving Time Indicator
    ASHRAETau,               !- Solar Model Indicator
    ,                        !- Beam Solar Day Schedule Name
    ,                        !- Diffuse Solar Day Schedule Name
    0.494,                   !- ASHRAE Clear Sky Optical Depth for Beam Irradiance (taub) {dimensionless}
    2.03;                    !- ASHRAE Clear Sky Optical Depth for Diffuse Irradiance (taud) {dimensionless}

SizingPeriod:DesignDay,
    SINGAPORE_Ann_Clg_4_Condns_DP_MDB,  !- Name
    6,                       !- Month
    21,                      !- Day of Month
    SummerDesignDay,         !- Day Type
    29.5,                    !- Maximum Dry-Bulb Temperature {C}
    5.5,                     !- Daily Dry-Bulb Temperature Range {deltaC}
    DefaultMultipliers,      !- Dry-Bulb Temperature Range Modifier Type
    ,                        !- Dry-Bulb Temperature Range Modifier Day Schedule Name
    Dewpoint,                !- Humidity Condition Type
    27,                      !- Wetbulb or DewPoint at Maximum Dry-Bulb {C}
    ,                        !- Humidity Condition Day Schedule Name
    ,                        !- Humidity Ratio at Maximum Dry-Bulb {kgWater/kgDryAir}
    ,                        !- Enthalpy at Maximum Dry-Bulb {J/kg}
    ,                        !- Daily Wet-Bulb Temperature Range {deltaC}
    101133,                  !- Barometric Pressure {Pa}
    4.1,                     !- Wind Speed {m/s}
    30,                      !- Wind Direction {deg}
    No,                      !- Rain Indicator
    No,                      !- Snow Indicator
    No,                      !- Daylight Saving Time Indicator
    ASHRAETau,               !- Solar Model Indicator
    ,                        !- Beam Solar Day Schedule Name
    ,                        !- Diffuse Solar Day Schedule Name
    0.494,                   !- ASHRAE Clear Sky Optical Depth for Beam Irradiance (taub) {dimensionless}
    2.03;                    !- ASHRAE Clear Sky Optical Depth for Diffuse Irradiance (taud) {dimensionless}

SizingPeriod:DesignDay,
    SINGAPORE_Ann_Clg_4_Condns_Enth_MDB,  !- Name
    6,                       !- Month
    21,                      !- Day of Month
    SummerDesignDay,         !- Day Type
    30.9,                    !- Maximum Dry-Bulb Temperature {C}
    5.5,                     !- Daily Dry-Bulb Temperature Range {deltaC}
    DefaultMultipliers,      !- Dry-Bulb Temperature Range Modifier Type
    ,                        !- Dry-Bulb Temperature Range Modifier Day Schedule Name
    Enthalpy,                !- Humidity Condition Type
    ,                        !- Wetbulb or DewPoint at Maximum Dry-Bulb {C}
    ,                        !- Humidity Condition Day Schedule Name
    ,                        !- Humidity Ratio at Maximum Dry-Bulb {kgWater/kgDryAir}
    88500,                   !- Enthalpy at Maximum Dry-Bulb {J/kg}
    ,                        !- Daily Wet-Bulb Temperature Range {deltaC}
    101133,                  !- Barometric Pressure {Pa}
    4.1,                     !- Wind Speed {m/s}
    30,                      !- Wind Direction {deg}
    No,                      !- Rain Indicator
    No,                      !- Snow Indicator
    No,                      !- Daylight Saving Time Indicator
    ASHRAETau,               !- Solar Model Indicator
    ,                        !- Beam Solar Day Schedule Name
    ,                        !- Diffuse Solar Day Schedule Name
    0.494,                   !- ASHRAE Clear Sky Optical Depth for Beam Irradiance (taub) {dimensionless}
    2.03;                    !- ASHRAE Clear Sky Optical Depth for Diffuse Irradiance (taud) {dimensionless}

SizingPeriod:DesignDay,
    SINGAPORE_Ann_Clg_4_Condns_WB_MDB,  !- Name
    6,                       !- Month
    21,                      !- Day of Month
    SummerDesignDay,         !- Day Type
    30.7,                    !- Maximum Dry-Bulb Temperature {C}
    5.5,                     !- Daily Dry-Bulb Temperature Range {deltaC}
    DefaultMultipliers,      !- Dry-Bulb Temperature Range Modifier Type
    ,                        !- Dry-Bulb Temperature Range Modifier Day Schedule Name
    Wetbulb,                 !- Humidity Condition Type
    27.7,                    !- Wetbulb or DewPoint at Maximum Dry-Bulb {C}
    ,                        !- Humidity Condition Day Schedule Name
    ,                        !- Humidity Ratio at Maximum Dry-Bulb {kgWater/kgDryAir}
    ,                        !- Enthalpy at Maximum Dry-Bulb {J/kg}
    ,                        !- Daily Wet-Bulb Temperature Range {deltaC}
    101133,                  !- Barometric Pressure {Pa}
    4.1,                     !- Wind Speed {m/s}
    30,                      !- Wind Direction {deg}
    No,                      !- Rain Indicator
    No,                      !- Snow Indicator
    No,                      !- Daylight Saving Time Indicator
    ASHRAETau,               !- Solar Model Indicator
    ,                        !- Beam Solar Day Schedule Name
    ,                        !- Diffuse Solar Day Schedule Name
    0.494,                   !- ASHRAE Clear Sky Optical Depth for Beam Irradiance (taub) {dimensionless}
    2.03;                    !- ASHRAE Clear Sky Optical Depth for Diffuse Irradiance (taud) {dimensionless}

SizingPeriod:DesignDay,
    SINGAPORE_Ann_Htg_99_6_Condns_DB,  !- Name
    12,                      !- Month
    21,                      !- Day of Month
    WinterDesignDay,         !- Day Type
    23,                      !- Maximum Dry-Bulb Temperature {C}
    0,                       !- Daily Dry-Bulb Temperature Range {deltaC}
    DefaultMultipliers,      !- Dry-Bulb Temperature Range Modifier Type
    ,                        !- Dry-Bulb Temperature Range Modifier Day Schedule Name
    Wetbulb,                 !- Humidity Condition Type
    23,                      !- Wetbulb or DewPoint at Maximum Dry-Bulb {C}
    ,                        !- Humidity Condition Day Schedule Name
    ,                        !- Humidity Ratio at Maximum Dry-Bulb {kgWater/kgDryAir}
    ,                        !- Enthalpy at Maximum Dry-Bulb {J/kg}
    ,                        !- Daily Wet-Bulb Temperature Range {deltaC}
    101133,                  !- Barometric Pressure {Pa}
    2,                       !- Wind Speed {m/s}
    320,                     !- Wind Direction {deg}
    No,                      !- Rain Indicator
    No,                      !- Snow Indicator
    No,                      !- Daylight Saving Time Indicator
    ASHRAEClearSky,          !- Solar Model Indicator
    ,                        !- Beam Solar Day Schedule Name
    ,                        !- Diffuse Solar Day Schedule Name
    ,                        !- ASHRAE Clear Sky Optical Depth for Beam Irradiance (taub) {dimensionless}
    ,                        !- ASHRAE Clear Sky Optical Depth for Diffuse Irradiance (taud) {dimensionless}
    0;                       !- Sky Clearness

SizingPeriod:DesignDay,
    SINGAPORE_Ann_Htg_Wind_99_6_Condns_WS_MCDB,  !- Name
    12,                      !- Month
    21,                      !- Day of Month
    WinterDesignDay,         !- Day Type
    28,                      !- Maximum Dry-Bulb Temperature {C}
    0,                       !- Daily Dry-Bulb Temperature Range {deltaC}
    DefaultMultipliers,      !- Dry-Bulb Temperature Range Modifier Type
    ,                        !- Dry-Bulb Temperature Range Modifier Day Schedule Name
    Wetbulb,                 !- Humidity Condition Type
    28,                      !- Wetbulb or DewPoint at Maximum Dry-Bulb {C}
    ,                        !- Humidity Condition Day Schedule Name
    ,                        !- Humidity Ratio at Maximum Dry-Bulb {kgWater/kgDryAir}
    ,                        !- Enthalpy at Maximum Dry-Bulb {J/kg}
    ,                        !- Daily Wet-Bulb Temperature Range {deltaC}
    101133,                  !- Barometric Pressure {Pa}
    8.3,                     !- Wind Speed {m/s}
    320,                     !- Wind Direction {deg}
    No,                      !- Rain Indicator
    No,                      !- Snow Indicator
    No,                      !- Daylight Saving Time Indicator
    ASHRAEClearSky,          !- Solar Model Indicator
    ,                        !- Beam Solar Day Schedule Name
    ,                        !- Diffuse Solar Day Schedule Name
    ,                        !- ASHRAE Clear Sky Optical Depth for Beam Irradiance (taub) {dimensionless}
    ,                        !- ASHRAE Clear Sky Optical Depth for Diffuse Irradiance (taud) {dimensionless}
    0;                       !- Sky Clearness

SizingPeriod:DesignDay,
    SINGAPORE_Ann_Hum_n_99_6_Condns_DP_MCDB,  !- Name
    12,                      !- Month
    21,                      !- Day of Month
    WinterDesignDay,         !- Day Type
    28.4,                    !- Maximum Dry-Bulb Temperature {C}
    0,                       !- Daily Dry-Bulb Temperature Range {deltaC}
    DefaultMultipliers,      !- Dry-Bulb Temperature Range Modifier Type
    ,                        !- Dry-Bulb Temperature Range Modifier Day Schedule Name
    Dewpoint,                !- Humidity Condition Type
    20.9,                    !- Wetbulb or DewPoint at Maximum Dry-Bulb {C}
    ,                        !- Humidity Condition Day Schedule Name
    ,                        !- Humidity Ratio at Maximum Dry-Bulb {kgWater/kgDryAir}
    ,                        !- Enthalpy at Maximum Dry-Bulb {J/kg}
    ,                        !- Daily Wet-Bulb Temperature Range {deltaC}
    101133,                  !- Barometric Pressure {Pa}
    2,                       !- Wind Speed {m/s}
    320,                     !- Wind Direction {deg}
    No,                      !- Rain Indicator
    No,                      !- Snow Indicator
    No,                      !- Daylight Saving Time Indicator
    ASHRAEClearSky,          !- Solar Model Indicator
    ,                        !- Beam Solar Day Schedule Name
    ,                        !- Diffuse Solar Day Schedule Name
    ,                        !- ASHRAE Clear Sky Optical Depth for Beam Irradiance (taub) {dimensionless}
    ,                        !- ASHRAE Clear Sky Optical Depth for Diffuse Irradiance (taud) {dimensionless}
    0;                       !- Sky Clearness


!-   ===========  ALL OBJECTS IN CLASS: RUNPERIOD ===========

RunPeriod,
    Run_Period_1,            !- Name
    7,                       !- Begin Month
    4,                       !- Begin Day of Month
    2021,                    !- Begin Year
    7,                       !- End Month
    4,                       !- End Day of Month
    2021,                    !- End Year
    Sunday,                  !- Day of Week for Start Day
    No,                      !- Use Weather File Holidays and Special Days
    No,                      !- Use Weather File Daylight Saving Period
    No,                      !- Apply Weekend Holiday Rule
    No,                      !- Use Weather File Rain Indicators
    No;                      !- Use Weather File Snow Indicators


!-   ===========  ALL OBJECTS IN CLASS: SITE:GROUNDTEMPERATURE:BUILDINGSURFACE ===========

Site:GroundTemperature:BuildingSurface,
    20,                      !- January Ground Temperature {C}
    20,                      !- February Ground Temperature {C}
    20,                      !- March Ground Temperature {C}
    20,                      !- April Ground Temperature {C}
    20,                      !- May Ground Temperature {C}
    20,                      !- June Ground Temperature {C}
    20,                      !- July Ground Temperature {C}
    20,                      !- August Ground Temperature {C}
    20,                      !- September Ground Temperature {C}
    20,                      !- October Ground Temperature {C}
    20,                      !- November Ground Temperature {C}
    20;                      !- December Ground Temperature {C}


!-   ===========  ALL OBJECTS IN CLASS: SCHEDULETYPELIMITS ===========

ScheduleTypeLimits,
    SchType_Fraction,        !- Name
    0,                       !- Lower Limit Value
    1,                       !- Upper Limit Value
    CONTINUOUS;              !- Numeric Type

ScheduleTypeLimits,
    SchType_ActivityLevel,   !- Name
    0,                       !- Lower Limit Value
    ,                        !- Upper Limit Value
    Continuous,              !- Numeric Type
    activitylevel;           !- Unit Type

ScheduleTypeLimits,
    SchType_OnOff,           !- Name
    0,                       !- Lower Limit Value
    1,                       !- Upper Limit Value
    Discrete,                !- Numeric Type
    availability;            !- Unit Type

ScheduleTypeLimits,
    SchType_Temperature,     !- Name
    ,                        !- Lower Limit Value
    ,                        !- Upper Limit Value
    Continuous,              !- Numeric Type
    temperature;             !- Unit Type

ScheduleTypeLimits,
    SchType_ControlType,     !- Name
    1,                       !- Lower Limit Value
    4,                       !- Upper Limit Value
    Discrete,                !- Numeric Type
    Control;                 !- Unit Type

ScheduleTypeLimits,
    Any Number;              !- Name


!-   ===========  ALL OBJECTS IN CLASS: SCHEDULE:COMPACT ===========

Schedule:Compact,
    Schcmpt_Light,           !- Name
    SchType_Fraction,        !- Schedule Type Limits Name
    Through: 12/31,          !- Field 1
    For: Saturday,           !- Field 2
    Until: 06:00,            !- Field 3
    0.05,                    !- Field 4
    Until: 08:00,            !- Field 5
    0.1,                     !- Field 6
    Until: 14:00,            !- Field 7
    0.5,                     !- Field 8
    Until: 17:00,            !- Field 9
    0.15,                    !- Field 10
    Until: 24:00,            !- Field 11
    0.05,                    !- Field 12
    For: SummerDesignDay,    !- Field 13
    Until: 24:00,            !- Field 14
    1,                       !- Field 15
    For: Sunday,             !- Field 16
    Until: 24:00,            !- Field 17
    0.05,                    !- Field 18
    For: Weekdays Holidays,  !- Field 19
    Until: 05:00,            !- Field 20
    0.05,                    !- Field 21
    Until: 07:00,            !- Field 22
    0.1,                     !- Field 23
    Until: 08:00,            !- Field 24
    0.3,                     !- Field 25
    Until: 17:00,            !- Field 26
    0.9,                     !- Field 27
    Until: 18:00,            !- Field 28
    0.7,                     !- Field 29
    Until: 20:00,            !- Field 30
    0.5,                     !- Field 31
    Until: 22:00,            !- Field 32
    0.3,                     !- Field 33
    Until: 23:00,            !- Field 34
    0.1,                     !- Field 35
    Until: 24:00,            !- Field 36
    0.05,                    !- Field 37
    For: WinterDesignDay,    !- Field 38
    Until: 24:00,            !- Field 39
    0,                       !- Field 40
    For: AllOtherDays,       !- Field 41
    Until: 24:00,            !- Field 42
    0;                       !- Field 43

Schedule:Compact,
    Schcmpt_Activity,        !- Name
    SchType_ActivityLevel,   !- Schedule Type Limits Name
    Through: 12/31,          !- Field 1
    For: AllDays,            !- Field 2
    Until: 24:00,            !- Field 3
    120,                     !- Field 4
    For: AllOtherDays,       !- Field 5
    Until: 24:00,            !- Field 6
    0;                       !- Field 7

Schedule:Compact,
    Schcmpt_Temp_chw_Supply, !- Name
    SchType_Temperature,     !- Schedule Type Limits Name
    Through: 12/31,          !- Field 1
    For: AllDays,            !- Field 2
    Until: 24:00,            !- Field 3
    6.3,                     !- Field 4
    For: AllOtherDays,       !- Field 5
    Until: 24:00,            !- Field 6
    0;                       !- Field 7

Schedule:Compact,
    Schcmpt_Deck_Temp,       !- Name
    SchType_Temperature,     !- Schedule Type Limits Name
    Through: 12/31,          !- Field 1
    For: AllDays,            !- Field 2
    Until: 24:00,            !- Field 3
    12.8,                    !- Field 4
    For: AllOtherDays,       !- Field 5
    Until: 24:00,            !- Field 6
    0;                       !- Field 7

Schedule:Compact,
    Schcmpt_Equipment,       !- Name
    SchType_Fraction,        !- Schedule Type Limits Name
    Through: 12/31,          !- Field 1
    For: Saturday,           !- Field 2
    Until: 06:00,            !- Field 3
    0.3,                     !- Field 4
    Until: 08:00,            !- Field 5
    0.4,                     !- Field 6
    Until: 14:00,            !- Field 7
    0.5,                     !- Field 8
    Until: 17:00,            !- Field 9
    0.35,                    !- Field 10
    Until: 24:00,            !- Field 11
    0.3,                     !- Field 12
    For: SummerDesignDay,    !- Field 13
    Until: 24:00,            !- Field 14
    1,                       !- Field 15
    For: Sunday,             !- Field 16
    Until: 24:00,            !- Field 17
    0.3,                     !- Field 18
    For: Weekdays Holidays,  !- Field 19
    Until: 08:00,            !- Field 20
    0.4,                     !- Field 21
    Until: 12:00,            !- Field 22
    0.9,                     !- Field 23
    Until: 13:00,            !- Field 24
    0.8,                     !- Field 25
    Until: 17:00,            !- Field 26
    0.9,                     !- Field 27
    Until: 18:00,            !- Field 28
    0.8,                     !- Field 29
    Until: 20:00,            !- Field 30
    0.6,                     !- Field 31
    Until: 22:00,            !- Field 32
    0.5,                     !- Field 33
    Until: 24:00,            !- Field 34
    0.4,                     !- Field 35
    For: WinterDesignDay,    !- Field 36
    Until: 24:00,            !- Field 37
    0,                       !- Field 38
    For: AllOtherDays,       !- Field 39
    Until: 24:00,            !- Field 40
    0;                       !- Field 41

Schedule:Compact,
    Schcmpt_Temp_hw_Supply,  !- Name
    SchType_Temperature,     !- Schedule Type Limits Name
    Through: 12/31,          !- Field 1
    For: AllDays,            !- Field 2
    Until: 24:00,            !- Field 3
    67,                      !- Field 4
    For: AllOtherDays,       !- Field 5
    Until: 24:00,            !- Field 6
    0;                       !- Field 7

Schedule:Compact,
    Schcmpt_Infiltration,    !- Name
    SchType_Fraction,        !- Schedule Type Limits Name
    Through: 12/31,          !- Field 1
    For: Saturday WinterDesignDay,  !- Field 2
    Until: 06:00,            !- Field 3
    1,                       !- Field 4
    Until: 18:00,            !- Field 5
    0.25,                    !- Field 6
    Until: 24:00,            !- Field 7
    1,                       !- Field 8
    For: Sunday,             !- Field 9
    Until: 24:00,            !- Field 10
    1,                       !- Field 11
    For: Weekdays Holidays SummerDesignDay,  !- Field 12
    Until: 06:00,            !- Field 13
    1,                       !- Field 14
    Until: 22:00,            !- Field 15
    0.25,                    !- Field 16
    Until: 24:00,            !- Field 17
    1,                       !- Field 18
    For: AllOtherDays,       !- Field 19
    Until: 24:00,            !- Field 20
    0;                       !- Field 21

Schedule:Compact,
    Schcmpt_Occupancy,       !- Name
    SchType_Fraction,        !- Schedule Type Limits Name
    Through: 12/31,          !- Field 1
    For: Saturday,           !- Field 2
    Until: 06:00,            !- Field 3
    0,                       !- Field 4
    Until: 08:00,            !- Field 5
    0.1,                     !- Field 6
    Until: 12:00,            !- Field 7
    0.3,                     !- Field 8
    Until: 17:00,            !- Field 9
    0.1,                     !- Field 10
    Until: 24:00,            !- Field 11
    0,                       !- Field 12
    For: SummerDesignDay,    !- Field 13
    Until: 06:00,            !- Field 14
    0,                       !- Field 15
    Until: 22:00,            !- Field 16
    1,                       !- Field 17
    Until: 24:00,            !- Field 18
    0.05,                    !- Field 19
    For: Sunday WinterDesignDay,  !- Field 20
    Until: 24:00,            !- Field 21
    0,                       !- Field 22
    For: Weekdays Holidays,  !- Field 23
    Until: 06:00,            !- Field 24
    0,                       !- Field 25
    Until: 07:00,            !- Field 26
    0.1,                     !- Field 27
    Until: 08:00,            !- Field 28
    0.2,                     !- Field 29
    Until: 12:00,            !- Field 30
    0.95,                    !- Field 31
    Until: 13:00,            !- Field 32
    0.5,                     !- Field 33
    Until: 17:00,            !- Field 34
    0.95,                    !- Field 35
    Until: 18:00,            !- Field 36
    0.3,                     !- Field 37
    Until: 20:00,            !- Field 38
    0.1,                     !- Field 39
    Until: 24:00,            !- Field 40
    0.05,                    !- Field 41
    For: AllOtherDays,       !- Field 42
    Until: 24:00,            !- Field 43
    0;                       !- Field 44

Schedule:Compact,
    SchCmpt_Setpoint_Room1,  !- Name
    SchType_Temperature,     !- Schedule Type Limits Name
    Through: 12/31,          !- Field 1
    For: AllDays,            !- Field 2
    Until: 24:00,            !- Field 3
    24;                      !- Field 4

Schedule:Compact,
    SchCmpt_Setpoint_Room2,  !- Name
    SchType_Temperature,     !- Schedule Type Limits Name
    Through: 12/31,          !- Field 1
    For: AllDays,            !- Field 2
    Until: 24:00,            !- Field 3
    24;                      !- Field 4

Schedule:Compact,
    SchCmpt_Setpoint_Room3,  !- Name
    SchType_Temperature,     !- Schedule Type Limits Name
    Through: 12/31,          !- Field 1
    For: Monday,             !- Field 2
    Until: 24:00,            !- Field 3
    24,                      !- Field 4
    For: Tuesday,            !- Field 5
    Until: 24:00,            !- Field 6
    26,                      !- Field 7
    For: Wednesday,          !- Field 8
    Until: 24:00,            !- Field 9
    26,                      !- Field 10
    For: Thursday,           !- Field 11
    Until: 24:00,            !- Field 12
    24,                      !- Field 13
    For: Friday,             !- Field 14
    Until: 24:00,            !- Field 15
    21,                      !- Field 16
    For: Saturday,           !- Field 17
    Until: 24:00,            !- Field 18
    21,                      !- Field 19
    For: Sunday,             !- Field 20
    Until: 24:00,            !- Field 21
    21,                      !- Field 22
    For: SummerDesignDay WinterDesignDay,  !- Field 23
    Until: 24:00,            !- Field 24
    24,                      !- Field 25
    For: AllOtherDays,       !- Field 26
    Until: 24:00,            !- Field 27
    24;                      !- Field 28

Schedule:Compact,
    SchCmpt_Setpoint_Room4,  !- Name
    SchType_Temperature,     !- Schedule Type Limits Name
    Through: 12/31,          !- Field 1
    For: AllDays,            !- Field 2
    Until: 24:00,            !- Field 3
    24;                      !- Field 4

Schedule:Compact,
    SchCmpt_HVAC,            !- Name
    SchType_OnOff,           !- Schedule Type Limits Name
    Through: 12/31,          !- Field 1
    For:Weekdays,            !- Field 2
    Until: 07:30,            !- Field 3
    0,                       !- Field 4
    Until: 18:30,            !- Field 5
    1,                       !- Field 6
    Until: 24:00,            !- Field 7
    0,                       !- Field 8
    For:AllOtherDays,        !- Field 9
    Until: 24:00,            !- Field 10
    0;                       !- Field 11

Schedule:Compact,
    SchCmpt_AirSupTemp_AirLoop1,  !- Name
    SchType_Temperature,     !- Schedule Type Limits Name
    Through: 12/31,          !- Field 1
    For: AllDays,            !- Field 2
    Until: 24:00,            !- Field 3
    14;                      !- Field 4

Schedule:Compact,
    SchCmpt_AirSupTemp_AirLoop2,  !- Name
    SchType_Temperature,     !- Schedule Type Limits Name
    Through: 12/31,          !- Field 1
    For: AllDays,            !- Field 2
    Until: 24:00,            !- Field 3
    14;                      !- Field 4

Schedule:Compact,
    Always_On,               !- Name
    SchType_Fraction,        !- Schedule Type Limits Name
    THROUGH: 12/31,          !- Field 1
    FOR: AllDays,            !- Field 2
    UNTIL: 24:00,            !- Field 3
    1;                       !- Field 4

Schedule:Compact,
    Always_Off,              !- Name
    SchType_Fraction,        !- Schedule Type Limits Name
    THROUGH: 12/31,          !- Field 1
    FOR: AllDays,            !- Field 2
    UNTIL: 24:00,            !- Field 3
    0;                       !- Field 4

Schedule:Compact,
    SchCmpt_Setpoint_Room3_2,!- Name
    SchType_Temperature,     !- Schedule Type Limits Name
    Through: 12/31,          !- Field 1
    For: Monday,             !- Field 2
    Until: 7:00,             !- Field 3
    21,                      !- Field 4