!-Generator IDFEditor 1.51
!-Option SortedOrder

!-NOTE: All comments with '!-' are ignored by the IDFEditor and are generated automatically.
!-      Use '!' comments if they need to be retained when using the IDFEditor.


!-   ===========  ALL OBJECTS IN CLASS: VERSION ===========

Version,
    9.4;                     !- Version Identifier


!-   ===========  ALL OBJECTS IN CLASS: SIMULATIONCONTROL ===========

SimulationControl,
    Yes,                     !- Do Zone Sizing Calculation
    Yes,                     !- Do System Sizing Calculation
    Yes,                     !- Do Plant Sizing Calculation
    No,                      !- Run Simulation for Sizing Periods
    Yes,                     !- Run Simulation for Weather File Run Periods
    No,                      !- Do HVAC Sizing Simulation for Sizing Periods
    1;                       !- Maximum Number of HVAC Sizing Simulation Passes


!-   ===========  ALL OBJECTS IN CLASS: BUILDING ===========

Building,
    SinBerBEST_Testbed,      !- Name
    0,                       !- North Axis {deg}
    City,                    !- Terrain
    ,                        !- Loads Convergence Tolerance Value {W}
    ,                        !- Temperature Convergence Tolerance Value {deltaC}
    FullExterior,            !- Solar Distribution
    ,                        !- Maximum Number of Warmup Days
    ;                        !- Minimum Number of Warmup Days


!-   ===========  ALL OBJECTS IN CLASS: SHADOWCALCULATION ===========

ShadowCalculation,
    PolygonClipping,         !- Shading Calculation Method
    Periodic,                !- Shading Calculation Update Frequency Method
    20,                      !- Shading Calculation Update Frequency
    15000;                   !- Maximum Figures in Shadow Overlap Calculations


!-   ===========  ALL OBJECTS IN CLASS: SURFACECONVECTIONALGORITHM:INSIDE ===========

SurfaceConvectionAlgorithm:Inside,
    TARP;                    !- Algorithm


!-   ===========  ALL OBJECTS IN CLASS: SURFACECONVECTIONALGORITHM:OUTSIDE ===========

SurfaceConvectionAlgorithm:Outside,
    DOE-2;                   !- Algorithm


!-   ===========  ALL OBJECTS IN CLASS: HEATBALANCEALGORITHM ===========

HeatBalanceAlgorithm,
    ConductionTransferFunction,  !- Algorithm
    200;                     !- Surface Temperature Upper Limit {C}


!-   ===========  ALL OBJECTS IN CLASS: ZONEAIRHEATBALANCEALGORITHM ===========

ZoneAirHeatBalanceAlgorithm,
    ThirdOrderBackwardDifference;  !- Algorithm


!-   ===========  ALL OBJECTS IN CLASS: ZONECAPACITANCEMULTIPLIER:RESEARCHSPECIAL ===========

ZoneCapacitanceMultiplier:ResearchSpecial,
    Zone_Capacitance_Multiplier_Research_Special,  !- Name
    ,                        !- Zone or ZoneList Name
    ,                        !- Temperature Capacity Multiplier
    ,                        !- Humidity Capacity Multiplier
    ,                        !- Carbon Dioxide Capacity Multiplier
    ;                        !- Generic Contaminant Capacity Multiplier


!-   ===========  ALL OBJECTS IN CLASS: TIMESTEP ===========

Timestep,
    4;                       !- Number of Timesteps per Hour


!-   ===========  ALL OBJECTS IN CLASS: CONVERGENCELIMITS ===========

ConvergenceLimits,
    1;                       !- Minimum System Timestep {minutes}


!-   ===========  ALL OBJECTS IN CLASS: SITE:LOCATION ===========

Site:Location,
    SINGAPORE,               !- Name
    1.37,                    !- Latitude {deg}
    103.98,                  !- Longitude {deg}
    8,                       !- Time Zone {hr}
    16;                      !- Elevation {m}


!-   ===========  ALL OBJECTS IN CLASS: SIZINGPERIOD:DESIGNDAY ===========

SizingPeriod:DesignDay,
    SINGAPORE Ann Clg .4% Condns DB=>MWB,  !- Name
    6,                       !- Month
    21,                      !- Day of Month
    SummerDesignDay,         !- Day Type
    33.2,                    !- Maximum Dry-Bulb Temperature {C}
    5.5,                     !- Daily Dry-Bulb Temperature Range {deltaC}
    DefaultMultipliers,      !- Dry-Bulb Temperature Range Modifier Type
    ,                        !- Dry-Bulb Temperature Range Modifier Day Schedule Name
    Wetbulb,                 !- Humidity Condition Type
    26.4,                    !- Wetbulb or DewPoint at Maximum Dry-Bulb {C}
    ,                        !- Humidity Condition Day Schedule Name
    ,                        !- Humidity Ratio at Maximum Dry-Bulb {kgWater/kgDryAir}
    ,                        !- Enthalpy at Maximum Dry-Bulb {J/kg}
    ,                        !- Daily Wet-Bulb Temperature Range {deltaC}
    101133.,                 !- Barometric Pressure {Pa}
    4.1,                     !- Wind Speed {m/s}
    30,                      !- Wind Direction {deg}
    No,                      !- Rain Indicator
    No,                      !- Snow Indicator
    No,                      !- Daylight Saving Time Indicator
    ASHRAETau,               !- Solar Model Indicator
    ,                        !- Beam Solar Day Schedule Name
    ,                        !- Diffuse Solar Day Schedule Name
    0.494,                   !- ASHRAE Clear Sky Optical Depth for Beam Irradiance (taub) {dimensionless}
    2.03;                    !- ASHRAE Clear Sky Optical Depth for Diffuse Irradiance (taud) {dimensionless}


!-   ===========  ALL OBJECTS IN CLASS: RUNPERIOD ===========

RunPeriod,
    Run_Period_1,            !- Name
    1,                       !- Begin Month
    1,                       !- Begin Day of Month
    2021,                    !- Begin Year
    12,                      !- End Month
    31,                      !- End Day of Month
    2021,                    !- End Year
    Friday,                  !- Day of Week for Start Day
    No,                      !- Use Weather File Holidays and Special Days
    No,                      !- Use Weather File Daylight Saving Period
    No,                      !- Apply Weekend Holiday Rule
    No,                      !- Use Weather File Rain Indicators
    No;                      !- Use Weather File Snow Indicators


!-   ===========  ALL OBJECTS IN CLASS: SITE:GROUNDTEMPERATURE:BUILDINGSURFACE ===========

Site:GroundTemperature:BuildingSurface,
    20,                      !- January Ground Temperature {C}
    20,                      !- February Ground Temperature {C}
    20,                      !- March Ground Temperature {C}
    20,                      !- April Ground Temperature {C}
    20,                      !- May Ground Temperature {C}
    20,                      !- June Ground Temperature {C}
    20,                      !- July Ground Temperature {C}
    20,                      !- August Ground Temperature {C}
    20,                      !- September Ground Temperature {C}
    20,                      !- October Ground Temperature {C}
    20,                      !- November Ground Temperature {C}
    20;                      !- December Ground Temperature {C}


!-   ===========  ALL OBJECTS IN CLASS: SCHEDULETYPELIMITS ===========

ScheduleTypeLimits,
    SchType_Fraction,        !- Name
    0,                       !- Lower Limit Value
    1,                       !- Upper Limit Value
    CONTINUOUS;              !- Numeric Type

ScheduleTypeLimits,
    SchType_ActivityLevel,   !- Name
    0,                       !- Lower Limit Value
    ,                        !- Upper Limit Value
    Continuous,              !- Numeric Type
    activitylevel;           !- Unit Type

ScheduleTypeLimits,
    SchType_OnOff,           !- Name
    0,                       !- Lower Limit Value
    1,                       !- Upper Limit Value
    Discrete,                !- Numeric Type
    availability;            !- Unit Type

ScheduleTypeLimits,
    SchType_Temperature,     !- Name
    ,                        !- Lower Limit Value
    ,                        !- Upper Limit Value
    Continuous,              !- Numeric Type
    temperature;             !- Unit Type

ScheduleTypeLimits,
    SchType_ControlType,     !- Name
    1,                       !- Lower Limit Value
    4,                       !- Upper Limit Value
    Discrete,                !- Numeric Type
    Control;                 !- Unit Type


!-   ===========  ALL OBJECTS IN CLASS: SCHEDULE:COMPACT ===========

Schedule:Compact,
    Schcmpt_Activity,        !- Name
    SchType_ActivityLevel,   !- Schedule Type Limits Name
    Through: 12/31,          !- Field 1
    For: AllDays,            !- Field 2
    Until: 24:00,            !- Field 3
    120,                     !- Field 4
    For: AllOtherDays,       !- Field 5
    Until: 24:00,            !- Field 6
    0;                       !- Field 7

Schedule:Compact,
    Schcmpt_Temp_chw_Supply, !- Name
    SchType_Temperature,     !- Schedule Type Limits Name
    Through: 12/31,          !- Field 1
    For: AllDays,            !- Field 2
    Until: 24:00,            !- Field 3
    7;                       !- Field 4

Schedule:Compact,
    Schcmpt_Equipment,       !- Name
    SchType_Fraction,        !- Schedule Type Limits Name
    Through: 12/31,          !- Field 1
    For: Saturday,           !- Field 2
    Until: 06:00,            !- Field 3
    0.3,                     !- Field 4
    Until: 08:00,            !- Field 5
    0.4,                     !- Field 6
    Until: 14:00,            !- Field 7
    0.5,                     !- Field 8
    Until: 17:00,            !- Field 9
    0.35,                    !- Field 10
    Until: 24:00,            !- Field 11
    0.3,                     !- Field 12
    For: SummerDesignDay,    !- Field 13
    Until: 24:00,            !- Field 14
    1,                       !- Field 15
    For: Sunday Holidays,    !- Field 16
    Until: 24:00,            !- Field 17
    0.3,                     !- Field 18
    For: Weekdays,           !- Field 19
    Until: 08:00,            !- Field 20
    0.4,                     !- Field 21
    Until: 12:00,            !- Field 22
    0.9,                     !- Field 23
    Until: 13:00,            !- Field 24
    0.8,                     !- Field 25
    Until: 17:00,            !- Field 26
    0.9,                     !- Field 27
    Until: 18:00,            !- Field 28
    0.8,                     !- Field 29
    Until: 20:00,            !- Field 30
    0.6,                     !- Field 31
    Until: 22:00,            !- Field 32
    0.5,                     !- Field 33
    Until: 24:00,            !- Field 34
    0.4,                     !- Field 35
    For: WinterDesignDay,    !- Field 36
    Until: 24:00,            !- Field 37
    0,                       !- Field 38
    For: AllOtherDays,       !- Field 39
    Until: 24:00,            !- Field 40
    0;                       !- Field 41

Schedule:Compact,
    Schcmpt_Infiltration,    !- Name
    SchType_Fraction,        !- Schedule Type Limits Name
    Through: 12/31,          !- Field 1
    For: Saturday WinterDesignDay,  !- Field 2
    Until: 06:00,            !- Field 3
    1,                       !- Field 4
    Until: 18:00,            !- Field 5
    0.25,                    !- Field 6
    Until: 24:00,            !- Field 7
    1,                       !- Field 8
    For: Sunday,             !- Field 9
    Until: 24:00,            !- Field 10
    1,                       !- Field 11
    For: Weekdays Holidays SummerDesignDay,  !- Field 12
    Until: 06:00,            !- Field 13
    1,                       !- Field 14
    Until: 22:00,            !- Field 15
    0.25,                    !- Field 16
    Until: 24:00,            !- Field 17
    1,                       !- Field 18
    For: AllOtherDays,       !- Field 19
    Until: 24:00,            !- Field 20
    0;                       !- Field 21

Schedule:Compact,
    SchCmpt_Setpoint_Room1,  !- Name
    SchType_Temperature,     !- Schedule Type Limits Name
    Through: 12/31,          !- Field 1
    For: AllDays,            !- Field 2
    Until: 24:00,            !- Field 3
    24;                      !- Field 4

Schedule:Compact,
    SchCmpt_Setpoint_Room2,  !- Name
    SchType_Temperature,     !- Schedule Type Limits Name
    Through: 12/31,          !- Field 1
    For: AllDays,            !- Field 2
    Until: 24:00,            !- Field 3
    24;                      !- Field 4

Schedule:Compact,
    SchCmpt_Setpoint_Room4,  !- Name
    SchType_Temperature,     !- Schedule Type Limits Name
    Through: 12/31,          !- Field 1
    For: AllDays,            !- Field 2
    Until: 24:00,            !- Field 3
    24;                      !- Field 4

Schedule:Compact,
    Always_On,               !- Name
    SchType_Fraction,        !- Schedule Type Limits Name
    THROUGH: 12/31,          !- Field 1
    FOR: AllDays,            !- Field 2
    UNTIL: 24:00,            !- Field 3
    1;                       !- Field 4

Schedule:Compact,
    Always_Off,              !- Name
    SchType_Fraction,        !- Schedule Type Limits Name
    THROUGH: 12/31,          !- Field 1
    FOR: AllDays,            !- Field 2
    UNTIL: 24:00,            !- Field 3
    0;                       !- Field 4

Schedule:Compact,
    SchCmpt_Setpoint_Room3,  !- Name
    SchType_Temperature,     !- Schedule Type Limits Name
    Through: 12/31,          !- Field 1
    For: Weekdays SummerDesignDay,  !- Field 2
    Until: 6:00,             !- Field 3
    30,                      !- Field 4
    Until: 20:00,            !- Field 5
    26,                      !- Field 6
    Until: 24:00,            !- Field 7
    30,                      !- Field 8
    For:  AllOtherDays,      !- Field 9
    Until: 24:00,            !- Field 10
    30;                      !- Field 11

Schedule:Compact,
    Schcmpt_Vent_Zone_TSP,   !- Name
    SchType_Temperature,     !- Schedule Type Limits Name
    Through: 12/31,          !- Field 1
    For: AllDays,            !- Field 2
    Until: 7:00,             !- Field 3
    28,                      !- Field 4
    Until: 20:00,            !- Field 5
    28,                      !- Field 6
    Until: 24:00,            !- Field 7
    28;                      !- Field 8

Schedule:Compact,
    Schcmpt_Occupancy1,      !- Name
    SchType_Fraction,        !- Schedule Type Limits Name
    Through: 12/31,          !- Field 1
    For: AllDays,            !- Field 2
    Until: 6:00,             !- Field 3
    0,                       !- Field 4
    Until: 9:00,             !- Field 5
    .25,                     !- Field 6
    Until: 12:00,            !- Field 7
    1,                       !- Field 8
    Until: 14:00,            !- Field 9
    1,                       !- Field 10
    Until: 18:00,            !- Field 11
    1,                       !- Field 12
    Until: 20:00,            !- Field 13
    .25,                     !- Field 14
    Until: 24:00,            !- Field 15
    0;                       !- Field 16

Schedule:Compact,
    Work_time_on,            !- Name
    SchType_OnOff,           !- Schedule Type Limits Name
    Through: 12/31,          !- Field 1
    For: Weekdays SummerDesignDay,  !- Field 2
    Until: 6:00,             !- Field 3
    0,                       !- Field 4
    Until: 20:00,            !- Field 5
    1,                       !- Field 6
    Until: 24:00,            !- Field 7
    0,                       !- Field 8
    For:  AllOtherDays,      !- Field 9
    Until: 24:00,            !- Field 10
    0;                       !- Field 11

Schedule:Compact,
    Schcmpt_Daylight,        !- Name
    SchType_OnOff,           !- Schedule Type Limits Name
    Through: 12/31,          !- Field 1
    For: AllDays,            !- Field 2
    Until: 7:00,             !- Field 3
    0,                       !- Field 4
    Until: 20:00,            !- Field 5
    1,                       !- Field 6
    Until: 24:00,            !- Field 7
    0;                       !- Field 8


!-   ===========  ALL OBJECTS IN CLASS: SCHEDULE:CONSTANT ===========

Schedule:Constant,
    SchConst_AlwaysOn,       !- Name
    SchType_OnOff,           !- Schedule Type Limits Name
    1;                       !- Hourly Value

Schedule:Constant,
    SchConst_CtrlType_Room1, !- Name
    SchType_ControlType,     !- Schedule Type Limits Name
    2;                       !- Hourly Value

Schedule:Constant,
    SchConst_CtrlType_Room2, !- Name
    SchType_ControlType,     !- Schedule Type Limits Name
    2;                       !- Hourly Value

Schedule:Constant,
    SchConst_CtrlType_Room3, !- Name
    SchType_ControlType,     !- Schedule Type Limits Name
    2;                       !- Hourly Value

Schedule:Constant,
    SchConst_CtrlType_Room4, !- Name
    SchType_ControlType,     !- Schedule Type Limits Name
    2;                       !- Hourly Value

Schedule:Constant,
    SetpointManSch_AirSup_AHU1_OffCoil_Temp_AirLoop1,  !- Name
    SchType_Temperature,     !- Schedule Type Limits Name
    15;                      !- Hourly Value

Schedule:Constant,
    SetpointManSch_AirSup_AHU2_OffCoil_Temp_AirLoop2,  !- Name
    SchType_Temperature,     !- Schedule Type Limits Name
    15;                      !- Hourly Value

Schedule:Constant,
    Fan_speed_sche,          !- Name
    SchType_ActivityLevel,   !- Schedule Type Limits Name
    40;                      !- Hourly Value


!-   ===========  ALL OBJECTS IN CLASS: MATERIAL ===========

Material,
    Chipboard,               !- Name
    Smooth,                  !- Roughness
    0.019,                   !- Thickness {m}
    0.144,                   !- Conductivity {W/m-K}
    800,                     !- Density {kg/m3}
    1300,                    !- Specific Heat {J/kg-K}
    0.9,                     !- Thermal Absorptance
    0.7,                     !- Solar Absorptance
    0.7;                     !- Visible Absorptance

Material,
    Dagard_SM60,             !- Name
    Rough,                   !- Roughness
    0.06,                    !- Thickness {m}
    0.071,                   !- Conductivity {W/m-K}
    80,                      !- Density {kg/m3}
    840,                     !- Specific Heat {J/kg-K}
    0.9,                     !- Thermal Absorptance
    0.7,                     !- Solar Absorptance
    0.7;                     !- Visible Absorptance

Material,
    MAT_CC05_4_HW_CONCRETE,  !- Name
    Rough,                   !- Roughness
    0.1016,                  !- Thickness {m}
    1.311,                   !- Conductivity {W/m-K}
    2240,                    !- Density {kg/m3}
    836.800000000001,        !- Specific Heat {J/kg-K}
    0.9,                     !- Thermal Absorptance
    0.85,                    !- Solar Absorptance
    0.85;                    !- Visible Absorptance

Material,
    Rockwool,                !- Name
    Rough,                   !- Roughness
    0.067,                   !- Thickness {m}
    0.033,                   !- Conductivity {W/m-K}
    60,                      !- Density {kg/m3}
    840,                     !- Specific Heat {J/kg-K}
    0.9,                     !- Thermal Absorptance
    0.7,                     !- Solar Absorptance
    0.7;                     !- Visible Absorptance

Material,
    Rubber_Matting,          !- Name
    Rough,                   !- Roughness
    0.003,                   !- Thickness {m}
    45.2800000000001,        !- Conductivity {W/m-K}
    7823.99999999999,        !- Density {kg/m3}
    500,                     !- Specific Heat {J/kg-K}
    0.9,                     !- Thermal Absorptance
    0.7,                     !- Solar Absorptance
    0.7;                     !- Visible Absorptance

Material,
    Wall_0145,               !- Name
    Rough,                   !- Roughness
    0.06,                    !- Thickness {m}
    0.009013896,             !- Conductivity {W/m-K}
    80,                      !- Density {kg/m3}
    840,                     !- Specific Heat {J/kg-K}
    0.9,                     !- Thermal Absorptance
    0.7,                     !- Solar Absorptance
    0.7;                     !- Visible Absorptance

Material,
    Wall_2161,               !- Name
    Rough,                   !- Roughness
    0.06,                    !- Thickness {m}
    0.269558915,             !- Conductivity {W/m-K}
    80,                      !- Density {kg/m3}
    840,                     !- Specific Heat {J/kg-K}
    0.9,                     !- Thermal Absorptance
    0.7,                     !- Solar Absorptance
    0.7;                     !- Visible Absorptance

Material,
    Wall_3504,               !- Name
    Rough,                   !- Roughness
    0.06,                    !- Thickness {m}
    1.326692523,             !- Conductivity {W/m-K}
    80,                      !- Density {kg/m3}
    840,                     !- Specific Heat {J/kg-K}
    0.9,                     !- Thermal Absorptance
    0.7,                     !- Solar Absorptance
    0.7;                     !- Visible Absorptance

Material,
    Wall_0525,               !- Name
    Rough,                   !- Roughness
    0.06,                    !- Thickness {m}
    0.036044717,             !- Conductivity {W/m-K}
    80,                      !- Density {kg/m3}
    840,                     !- Specific Heat {J/kg-K}
    0.9,                     !- Thermal Absorptance
    0.7,                     !- Solar Absorptance
    0.7;                     !- Visible Absorptance

Material,
    Wall_1355,               !- Name
    Rough,                   !- Roughness
    0.06,                    !- Thickness {m}
    0.120519559,             !- Conductivity {W/m-K}
    80,                      !- Density {kg/m3}
    840,                     !- Specific Heat {J/kg-K}
    0.9,                     !- Thermal Absorptance
    0.7,                     !- Solar Absorptance
    0.7;                     !- Visible Absorptance


!-   ===========  ALL OBJECTS IN CLASS: MATERIAL:NOMASS ===========

Material:NoMass,
    CP02_CARPET_PAD,         !- Name
    Smooth,                  !- Roughness
    0.1,                     !- Thermal Resistance {m2-K/W}
    0.9,                     !- Thermal Absorptance
    0.8,                     !- Solar Absorptance
    0.8;                     !- Visible Absorptance

Material:NoMass,
    Bolted_Stringer,         !- Name
    MediumRough,             !- Roughness
    0.13986,                 !- Thermal Resistance {m2-K/W}
    0.9,                     !- Thermal Absorptance
    0.7,                     !- Solar Absorptance
    0.7;                     !- Visible Absorptance


!-   ===========  ALL OBJECTS IN CLASS: WINDOWMATERIAL:SIMPLEGLAZINGSYSTEM ===========

WindowMaterial:SimpleGlazingSystem,
    Double_Glazed_Unit,      !- Name
    3.96,                    !- U-Factor {W/m2-K}
    0.235,                   !- Solar Heat Gain Coefficient
    0.123;                   !- Visible Transmittance

WindowMaterial:SimpleGlazingSystem,
    win_1267,                !- Name
    1.267,                   !- U-Factor {W/m2-K}
    0.255,                   !- Solar Heat Gain Coefficient
    0.475;                   !- Visible Transmittance

WindowMaterial:SimpleGlazingSystem,
    win_2412,                !- Name
    2.412,                   !- U-Factor {W/m2-K}
    0.234,                   !- Solar Heat Gain Coefficient
    0.181;                   !- Visible Transmittance

WindowMaterial:SimpleGlazingSystem,
    win_1761,                !- Name
    1.761,                   !- U-Factor {W/m2-K}
    0.568,                   !- Solar Heat Gain Coefficient
    0.745;                   !- Visible Transmittance

WindowMaterial:SimpleGlazingSystem,
    win_2716,                !- Name
    2.716,                   !- U-Factor {W/m2-K}
    0.764,                   !- Solar Heat Gain Coefficient
    0.812;                   !- Visible Transmittance

WindowMaterial:SimpleGlazingSystem,
    win_3964,                !- Name
    3.964,                   !- U-Factor {W/m2-K}
    0.238,                   !- Solar Heat Gain Coefficient
    0.123;                   !- Visible Transmittance


!-   ===========  ALL OBJECTS IN CLASS: CONSTRUCTION ===========

Construction,
    Dagard_Wall_Panel,       !- Name
    Dagard_SM60;             !- Outside Layer

Construction,
    Exterior_Floor,          !- Name
    MAT_CC05_4_HW_CONCRETE,  !- Outside Layer
    CP02_CARPET_PAD;         !- Layer 2

Construction,
    Exterior_Window,         !- Name
    Double_Glazed_Unit;      !- Outside Layer

Construction,
    GreatYear_Operable_Wall, !- Name
    Chipboard,               !- Outside Layer
    Rockwool,                !- Layer 2
    Chipboard;               !- Layer 3

Construction,
    M3_Access_Floor,         !- Name
    Bolted_Stringer;         !- Outside Layer

Construction,
    RaisedFloor_Panel,       !- Name
    Rubber_Matting;          !- Outside Layer

Construction,
    Interior_Window,         !- Name
    Double_Glazed_Unit;      !- Outside Layer


!-   ===========  ALL OBJECTS IN CLASS: GLOBALGEOMETRYRULES ===========

GlobalGeometryRules,
    UpperLeftCorner,         !- Starting Vertex Position
    Counterclockwise,        !- Vertex Entry Direction
    Relative,                !- Coordinate System
    Relative,                !- Daylighting Reference Point Coordinate System
    Relative;                !- Rectangular Surface Coordinate System


!-   ===========  ALL OBJECTS IN CLASS: ZONE ===========

Zone,
    Plenum1,                 !- Name
    0,                       !- Direction of Relative North {deg}
    0,                       !- X Origin {m}
    0,                       !- Y Origin {m}
    0,                       !- Z Origin {m}
    ,                        !- Type
    ,                        !- Multiplier
    ,                        !- Ceiling Height {m}
    ,                        !- Volume {m3}
    ,                        !- Floor Area {m2}
    ,                        !- Zone Inside Convection Algorithm
    ,                        !- Zone Outside Convection Algorithm
    No;                      !- Part of Total Floor Area

Zone,
    Plenum2,                 !- Name
    0,                       !- Direction of Relative North {deg}
    0,                       !- X Origin {m}
    0,                       !- Y Origin {m}
    0,                       !- Z Origin {m}
    ,                        !- Type
    ,                        !- Multiplier
    ,                        !- Ceiling Height {m}
    ,                        !- Volume {m3}
    ,                        !- Floor Area {m2}
    ,                        !- Zone Inside Convection Algorithm
    ,                        !- Zone Outside Convection Algorithm
    No;                      !- Part of Total Floor Area

Zone,
    Plenum3,                 !- Name
    0,                       !- Direction of Relative North {deg}
    0,                       !- X Origin {m}
    0,                       !- Y Origin {m}
    0,                       !- Z Origin {m}
    ,                        !- Type
    ,                        !- Multiplier
    ,                        !- Ceiling Height {m}
    ,                        !- Volume {m3}
    ,                        !- Floor Area {m2}
    ,                        !- Zone Inside Convection Algorithm
    ,                        !- Zone Outside Convection Algorithm
    No;                      !- Part of Total Floor Area

Zone,
    Plenum4,                 !- Name
    0,                       !- Direction of Relative North {deg}
    0,                       !- X Origin {m}
    0,                       !- Y Origin {m}
    0,                       !- Z Origin {m}
    ,                        !- Type
    ,                        !- Multiplier
    ,                        !- Ceiling Height {m}
    ,                        !- Volume {m3}
    ,                        !- Floor Area {m2}
    ,                        !- Zone Inside Convection Algorithm
    ,                        !- Zone Outside Convection Algorithm
    No;                      !- Part of Total Floor Area

Zone,
    RaisedFloor1,            !- Name
    0,                       !- Direction of Relative North {deg}
    0,                       !- X Origin {m}
    0,                       !- Y Origin {m}
    0,                       !- Z Origin {m}
    ,                        !- Type
    ,                        !- Multiplier
    ,                        !- Ceiling Height {m}
    ,                        !- Volume {m3}
    ,                        !- Floor Area {m2}
    ,                        !- Zone Inside Convection Algorithm
    ,                        !- Zone Outside Convection Algorithm
    No;                      !- Part of Total Floor Area

Zone,
    RaisedFloor2,            !- Name
    0,                       !- Direction of Relative North {deg}
    0,                       !- X Origin {m}
    0,                       !- Y Origin {m}
    0,                       !- Z Origin {m}
    ,                        !- Type
    ,                        !- Multiplier
    ,                        !- Ceiling Height {m}
    ,                        !- Volume {m3}
    ,                        !- Floor Area {m2}
    ,                        !- Zone Inside Convection Algorithm
    ,                        !- Zone Outside Convection Algorithm
    No;                      !- Part of Total Floor Area

Zone,
    RaisedFloor3,            !- Name
    0,                       !- Direction of Relative North {deg}
    0,                       !- X Origin {m}
    0,                       !- Y Origin {m}
    0,                       !- Z Origin {m}
    ,                        !- Type
    ,                        !- Multiplier
    ,                        !- Ceiling Height {m}
    ,                        !- Volume {m3}
    ,                        !- Floor Area {m2}
    ,                        !- Zone Inside Convection Algorithm
    ,                        !- Zone Outside Convection Algorithm
    No;                      !- Part of Total Floor Area

Zone,